/*--------------------------------*- C++ -*----------------------------------*\
| =========                 |                                                 |
| \\      /  F ield         | OpenFOAM: The Open Source CFD Toolbox           |
|  \\    /   O peration     | Version:  v2006                                 |
|   \\  /    A nd           | Website:  www.openfoam.com                      |
|    \\/     M anipulation  |                                                 |
\*---------------------------------------------------------------------------*/
FoamFile
{
    version     2.0;
    format      ascii;
    class       volScalarField;
    location    "0";
    object      omega;
}
// * * * * * * * * * * * * * * * * * * * * * * * * * * * * * * * * * * * * * //

dimensions      [0 0 -1 0 0 0 0];

internalField   uniform 337.5;

boundaryField
{
    body
    {
        type            omegaWallFunction;
        value           uniform 337.5;
    }
    inlet
    {
        type            fixedValue;
        value           uniform 337.5;
    }
    inlet-walls
    {
        type            omegaWallFunction;
        value           uniform 337.5;
    }
    overflow
    {
        type            zeroGradient;
    }
    underflow
    {
        type            zeroGradient;
    }
    vortexfinder
    {
        type            omegaWallFunction;
        value           uniform 337.5;
    }
}


// ************************************************************************* //
