/*--------------------------------*- C++ -*----------------------------------*\
| =========                 |                                                 |
| \\      /  F ield         | OpenFOAM: The Open Source CFD Toolbox           |
|  \\    /   O peration     | Version:  v2006                                 |
|   \\  /    A nd           | Website:  www.openfoam.com                      |
|    \\/     M anipulation  |                                                 |
\*---------------------------------------------------------------------------*/
FoamFile
{
    version     2.0;
    format      ascii;
    class       dictionary;
    location    "../system";
    object      controlDict;
}
// * * * * * * * * * * * * * * * * * * * * * * * * * * * * * * * * * * * * * //

application     simpleFoam;

startFrom       latestTime;

startTime       0;

stopAt          endTime;

endTime         3000;

deltaT          1;

writeControl    timeStep;

writeInterval   100;

purgeWrite      0;

writeFormat     ascii;

writePrecision  8;

writeCompression off;

timeFormat      general;

timePrecision   6;

graphFormat     raw;

runTimeModifiable yes;

functions
{
    forces
    {
        type			forces;
        libs			(forces); //Lib to load
        patches			(wallAhmed); // change to your patch name
        rho				rhoInf;
        rhoInf			1.225; //Reference density for fluid
        CofR			( 0.522 0 0.194 );; //Origin for moment calculations
        writeControl	timeStep;
        writeInterval	1;
    }
    forceCoeffs
    {
        type			forceCoeffs;
        libs			(forces);
        patches			(wallAhmed); //change to your patch name
        rho				rhoInf;
        rhoInf			1.225;
        CofR			( 0.522 0 0.194 );
        liftDir			(0 0 1);
        dragDir			(1 0 0);
        pitchAxis		(0.25 0 0);
        magUInf			40.0;
        lRef			1.044;
        Aref			0.115320;
        writeControl	timeStep;
        writeInterval	1;
    }
}


// ************************************************************************* //
