/*--------------------------------*- C++ -*----------------------------------*\
| =========                 |                                                 |
| \\      /  F ield         | OpenFOAM: The Open Source CFD Toolbox           |
|  \\    /   O peration     | Version:  v2006                                 |
|   \\  /    A nd           | Website:  www.openfoam.com                      |
|    \\/     M anipulation  |                                                 |
\*---------------------------------------------------------------------------*/
FoamFile
{
    version     2.0;
    format      ascii;
    class       dictionary;
    location    "../system";
    object      fvSolution;
}
// * * * * * * * * * * * * * * * * * * * * * * * * * * * * * * * * * * * * * //

SIMPLE
{
    nNonOrthogonalCorrectors 0;
    pRefCell        0;
    pRefValue       0;
}

solvers
{
    p
    {
        solver          GAMG;
        agglomerator    faceAreaPair;
        mergeLevels     1;
        cacheAgglomeration true;
        nCellsInCoarsestLevel 10;
        tolerance       1e-07;
        relTol          0.01;
        smoother        GaussSeidel;
        nPreSweeps      0;
        nPostSweeps     2;
        nFinestSweeps   2;
    }
    p_rgh
    {
        solver          GAMG;
        agglomerator    faceAreaPair;
        mergeLevels     1;
        cacheAgglomeration true;
        nCellsInCoarsestLevel 10;
        tolerance       1e-07;
        relTol          0.01;
        smoother        GaussSeidel;
        nPreSweeps      0;
        nPostSweeps     2;
        nFinestSweeps   2;
    }
    U
    {
        solver          smoothSolver;
        smoother        GaussSeidel;
        tolerance       1e-06;
        relTol          0.1;
    }
    k
    {
        solver          smoothSolver;
        smoother        GaussSeidel;
        tolerance       1e-06;
        relTol          0.1;
    }
    kl
    {
        solver          smoothSolver;
        smoother        GaussSeidel;
        tolerance       1e-06;
        relTol          0.1;
    }
    epsilon
    {
        solver          smoothSolver;
        smoother        GaussSeidel;
        tolerance       1e-06;
        relTol          0.1;
    }
    R
    {
        solver          smoothSolver;
        smoother        GaussSeidel;
        tolerance       1e-06;
        relTol          0.1;
    }
    nuTilda
    {
        solver          smoothSolver;
        smoother        GaussSeidel;
        tolerance       1e-06;
        relTol          0.1;
    }
    omega
    {
        solver          smoothSolver;
        smoother        GaussSeidel;
        tolerance       1e-06;
        relTol          0.1;
    }
    h
    {
        solver          smoothSolver;
        smoother        GaussSeidel;
        tolerance       1e-06;
        relTol          0.1;
    }
    T
    {
        solver          smoothSolver;
        smoother        GaussSeidel;
        tolerance       1e-06;
        relTol          0.1;
    }
    rho
    {
        solver          PCG;
        preconditioner  DIC;
        tolerance       0;
        relTol          0;
    }
}

relaxationFactors
{
    fields
    {
        p               0.3;
        p_rgh           0.3;
        rho             0.05;
    }
    equations
    {
        U               0.8;
        h               0.5;
        T               0.7;
        k               0.7;
        epsilon         0.7;
        R               0.7;
        nuTilda         0.7;
        omega           0.7;
        kl              0.7;
    }
}


// ************************************************************************* //
