/*--------------------------------*- C++ -*----------------------------------*\
| =========                 |                                                 |
| \\      /  F ield         | OpenFOAM: The Open Source CFD Toolbox           |
|  \\    /   O peration     | Version:  v2006                                 |
|   \\  /    A nd           | Website:  www.openfoam.com                      |
|    \\/     M anipulation  |                                                 |
\*---------------------------------------------------------------------------*/
FoamFile
{
    version     2.0;
    format      ascii;
    class       volScalarField;
    location    "0/domain1";
    object      T;
}
// * * * * * * * * * * * * * * * * * * * * * * * * * * * * * * * * * * * * * //

dimensions      [0 0 0 1 0 0 0];

internalField   uniform 500;

boundaryField
{
    baffleSolidToFluid
    {
        type            compressible::turbulentTemperatureCoupledBaffleMixed;
        value           uniform 500;
        kappaMethod     solidThermo;
        Tnbr            T;
    }
    "wall.*"
    {
        type            zeroGradient;
    }
    wallHeatSource
    {
        type            fixedValue;
        value           uniform 500;
    }
}


// ************************************************************************* //
