/*--------------------------------*- C++ -*----------------------------------*\
| =========                 |                                                 |
| \\      /  F ield         | OpenFOAM: The Open Source CFD Toolbox           |
|  \\    /   O peration     | Version:  v2006                                 |
|   \\  /    A nd           | Website:  www.openfoam.com                      |
|    \\/     M anipulation  |                                                 |
\*---------------------------------------------------------------------------*/
FoamFile
{
    version     2.0;
    format      ascii;
    class       volScalarField;
    location    "0";
    object      k;
}
// * * * * * * * * * * * * * * * * * * * * * * * * * * * * * * * * * * * * * //

dimensions      [0 2 -2 0 0 0 0];

internalField   uniform 0.06;

boundaryField
{
    //- Set patchGroups for constraint patches
    #includeEtc "caseDicts/setConstraintTypes"

    inlet
    {
        type            fixedValue;
        value           uniform 0.06;
    }

    outlet
    {
        type            inletOutlet;
        inletValue      uniform 0.06;
        value           uniform 0.06;
    }

    rotatingWalls
    {
        type            kqRWallFunction;
        value           uniform 0.006;
    }
    
    slipWalls
    {
        type            slip;
    }

    "ami.*"
    {
        type            cyclicAMI;
    }
}


// ************************************************************************* //
