/*--------------------------------*- C++ -*----------------------------------*\
| =========                 |                                                 |
| \\      /  F ield         | OpenFOAM: The Open Source CFD Toolbox           |
|  \\    /   O peration     | Version:  v2006                                 |
|   \\  /    A nd           | Website:  www.openfoam.com                      |
|    \\/     M anipulation  |                                                 |
\*---------------------------------------------------------------------------*/
FoamFile
{
    version     2.0;
    format      ascii;
    class       volScalarField;
    object      omega;
}
// * * * * * * * * * * * * * * * * * * * * * * * * * * * * * * * * * * * * * //

dimensions      [0 0 -1 0 0 0 0];

internalField   uniform 1.0;

boundaryField
{
    inlet
    {
        type            fixedValue;
        value           uniform 10.0;
    }

    outlet
    {
        type            inletOutlet;
        inletValue      uniform 10.0;
        value           uniform 10.0;
    }
    
    rotatingWalls
    {
	type            omegaWallFunction;
        value           uniform 10.0;
    }
    
    slipWalls
    {
        type            slip;
    }

    "ami.*"
    {
        type            cyclicAMI;
    }

    #includeEtc "caseDicts/setConstraintTypes"
}

// ************************************************************************* //
