/*--------------------------------*- C++ -*----------------------------------*\
| =========                 |                                                 |
| \\      /  F ield         | OpenFOAM: The Open Source CFD Toolbox           |
|  \\    /   O peration     | Version:  v2006                                 |
|   \\  /    A nd           | Website:  www.openfoam.com                      |
|    \\/     M anipulation  |                                                 |
\*---------------------------------------------------------------------------*/
FoamFile
{
    version     2.0;
    format      ascii;
    class       dictionary;
    object      createPatchDict;
}
// * * * * * * * * * * * * * * * * * * * * * * * * * * * * * * * * * * * * * //


pointSync false;

writeCyclicMatch  false;

// Patches to create.
patches
(
    {
        // Name of new patch
        name baffleFluidToSolid;

        // Dictionary to construct new patch from
        patchInfo
        {
            type mappedWall;
            sampleMode      nearestPatchFace;
	    sampleRegion    solid;
	    samplePatch     baffleSolidToFluid;
	    
        }

        // How to construct: either from 'patches' or 'set'
        constructFrom patches;

        // If constructFrom = patches : names of patches. Wildcards allowed.
        patches (wallFluidToSolid);

    }
);

// ************************************************************************* //
