/*--------------------------------*- C++ -*----------------------------------*\
| =========                 |                                                 |
| \\      /  F ield         | OpenFOAM: The Open Source CFD Toolbox           |
|  \\    /   O peration     | Version:  v2006                                 |
|   \\  /    A nd           | Website:  www.openfoam.com                      |
|    \\/     M anipulation  |                                                 |
\*---------------------------------------------------------------------------*/
FoamFile
{
    version     2.0;
    format      ascii;
    class       dictionary;
    object      fvSolution;
}
// * * * * * * * * * * * * * * * * * * * * * * * * * * * * * * * * * * * * * //

solvers
{
    pcorr
    {
        solver          GAMG;
        tolerance       1e-2;
        relTol          0;
        smoother        DICGaussSeidel;
        cacheAgglomeration no;
        nCellsInCoarsestLevel 10;
        agglomerator    faceAreaPair;
        mergeLevels     1;
        maxIter         50;
    }

    p
    {
        $pcorr;
        tolerance       1e-5;
        relTol          0.01;
    }

    pFinal
    {
        $p;
        tolerance       1e-6;
        relTol          0;
    }

    "(U|k|omega)"
    {
        solver          smoothSolver;
        smoother        symGaussSeidel;
        tolerance       1e-6;
        relTol          0.1;
    }

    "(U|k|omega)Final"
    {
        solver          smoothSolver;
        smoother        symGaussSeidel;
        tolerance       1e-6;
        relTol          0;
    }
}

PIMPLE
{
    correctPhi          no;
    nOuterCorrectors    50;
    nCorrectors         1;
    nNonOrthogonalCorrectors 0;
    transonic           no;
    turbOnFinalIterOnly no;
    momentumPredictor yes;
    consistent          true;

    residualControl
    {
        "(p)"
        {
            relTol          0;
            tolerance       0.02;
        }
        "(U)"
        {
            relTol          0;
            tolerance       0.005;
        }
        "(s|k|omega)"
        {
            relTol          0;
            tolerance       0.005;
        }
    }

    outerCorrectorResidualControl
    {
        "(p)"
        {
            relTol          0;
            tolerance       0.02;
        }
        "(U)"
        {
            relTol          0;
            tolerance       0.005;
        }
        "(s|k|omega)"
        {
            relTol          0;
            tolerance       0.005;
        }
    }
}

relaxationFactors
{
    fields
    {
        p               0.3;
        pFinal          0.3;
    }
    equations
    {
        "U|k|epsilon|omega|s"      0.5;
        "(U|k|epsilon|omega|s)Final"      0.5;
    }
}

cache
{
    grad(U);
}

// ************************************************************************* //
