/*--------------------------------*- C++ -*----------------------------------*\
| =========                 |                                                 |
| \\      /  F ield         | OpenFOAM: The Open Source CFD Toolbox           |
|  \\    /   O peration     | Version:  v2006                                 |
|   \\  /    A nd           | Website:  www.openfoam.com                      |
|    \\/     M anipulation  |                                                 |
\*---------------------------------------------------------------------------*/
FoamFile
{
    version     2.0;
    format      ascii;
    class       dictionary;
    location    "system/functionObjects";
    object      temperatureAverage;
}
// * * * * * * * * * * * * * * * * * * * * * * * * * * * * * * * * * * * * * //

    Average_fluidA_outlet
    {
        type            surfaceFieldValue;
        libs            ("libfieldFunctionObjects.so");
        log             yes;
        writeControl    timeStep;
        writeFields     false;
        surfaceFormat   none;
        regionType      patch;
        name            outlet;
	region 		fluidA;	
        operation       areaAverage;
        fields
        (
            T
        );
    }  
    Average_fluidB_outlet
    {
        type            surfaceFieldValue;
        libs            ("libfieldFunctionObjects.so");
        log             yes;
        writeControl    timeStep;
        writeFields     false;
        surfaceFormat   none;
        regionType      patch;
        name            outlet;
	region 		fluidB;	
        operation       areaAverage;
        fields
        (
            T
        );
    }  
    
    
    

    
