/*--------------------------------*- C++ -*----------------------------------*\
| =========                 |                                                 |
| \\      /  F ield         | OpenFOAM: The Open Source CFD Toolbox           |
|  \\    /   O peration     | Version:  v2006                                 |
|   \\  /    A nd           | Website:  www.openfoam.com                      |
|    \\/     M anipulation  |                                                 |
\*---------------------------------------------------------------------------*/

FoamFile
{
    version   2.0;
    format    ascii;
    class     dictionary;
    location  "system";
    object    meshDict;
}

// * * * * * * * * * * * * * * * * * * * * * * * * * * * * * * * * * * * * * //

surfaceFile "joined2.fms";

maxCellSize 160.0;

boundaryCellSize 100.0;

keepCellsIntersectingBoundary  0;

checkForGluedMesh   0;

//minCellSize 5.00;

localRefinement
{ 
    "inlet.*"
    {
        additionalRefinementLevels 1;
    }
        
    "outlet.*"
    {
        additionalRefinementLevels 1;
    }
    
    "ami.*"
    {
        additionalRefinementLevels 3;
    }
    
    "slip.*"
    {
        additionalRefinementLevels 0;
    }
    
}

objectRefinements
{
    afterTheProp
    {
        type cone;
        cellSize 30;   
        p0 (0 -1000 0);
        p1 (0 3000 0);
        radius0  600;
        radius1  1000;
    }

}

keepCellsIntersectingPatches
{
}

boundaryLayers
{
}

anisotropicSources
{
}

renameBoundary
{
}
               
     
// ************************************************************************* //
