/*--------------------------------*- C++ -*----------------------------------*\
| =========                 |                                                 |
| \\      /  F ield         | OpenFOAM: The Open Source CFD Toolbox           |
|  \\    /   O peration     | Version:  v2006                                 |
|   \\  /    A nd           | Website:  www.openfoam.com                      |
|    \\/     M anipulation  |                                                 |
\*---------------------------------------------------------------------------*/
FoamFile
{
    version     2.0;
    format      ascii;
    class       volScalarField;
    location    "0";
    object      k;
}
// * * * * * * * * * * * * * * * * * * * * * * * * * * * * * * * * * * * * * //

dimensions      [0 2 -2 0 0 0 0];


internalField   uniform 0.24;

boundaryField
{
    wallAhmed
    {
        type            kqRWallFunction;
        value           uniform 0;
    }
    wallGround
    {
        type            kqRWallFunction;
        value           uniform 0;
    }
    slipWalls
    {
        type            slip;
    }
    symmetry
    {
        type            symmetry;
    }
    inlet
    {
        type            turbulentIntensityKineticEnergyInlet;
        intensity       0.02;
        value           uniform 0.24;
    }
    outlet
    {
        type            zeroGradient;
    }
}


// ************************************************************************* //
