/*--------------------------------*- C++ -*----------------------------------*\
| =========                 |                                                 |
| \\      /  F ield         | OpenFOAM: The Open Source CFD Toolbox           |
|  \\    /   O peration     | Version:  2.2.0                                 |
|   \\  /    A nd           | Web:      www.OpenFOAM.org                      |
|    \\/     M anipulation  |                                                 |
\*---------------------------------------------------------------------------*/
FoamFile
{
    version     2.0;
    format      ascii;
    class       volVectorField;
    object      U;
}
// * * * * * * * * * * * * * * * * * * * * * * * * * * * * * * * * * * * * * //

dimensions      [0 1 -1 0 0 0 0];

internalField   uniform (40 0 0);

boundaryField
{
    inlet
    {
        type  fixedValue;
        value $internalField;
    }

    outlet
    {
        type            inletOutlet;
        inletValue      uniform (0 0 0);
        value           $internalField;
    }
    
    symmetry
    {
        type           symmetryPlane;
    }
    
    slipWalls
    {
        type            slip;
    }

    wallAhmed
    {
        type            fixedValue;
        value           $internalField;
    }
    
    wallGround
    {
        type            fixedValue;
        value           $internalField;
    }
}

// ************************************************************************* //
